data_CONTCAR
_audit_creation_date              2023-11-22
_audit_creation_method            'Materials Studio'
_symmetry_space_group_name_H-M    'P1'
_symmetry_Int_Tables_number       1
_symmetry_cell_setting            triclinic
loop_
_symmetry_equiv_pos_as_xyz
  x,y,z
_cell_length_a                    17.2200
_cell_length_b                    17.2200
_cell_length_c                    15.0000
_cell_angle_alpha                 90.0000
_cell_angle_beta                  90.0000
_cell_angle_gamma                 120.0000
loop_
_atom_site_label
_atom_site_type_symbol
_atom_site_fract_x
_atom_site_fract_y
_atom_site_fract_z
_atom_site_U_iso_or_equiv
_atom_site_adp_type
_atom_site_occupancy
C0     C     0.98878   0.00038   0.33956   0.00000  Uiso   1.00
C1     C     0.08352   0.04695   0.34273   0.00000  Uiso   1.00
C2     C     0.98819   0.14320   0.33724   0.00000  Uiso   1.00
C3     C     0.08304   0.18998   0.33836   0.00000  Uiso   1.00
C4     C     0.98811   0.28605   0.33423   0.00000  Uiso   1.00
C5     C     0.08316   0.33338   0.33360   0.00000  Uiso   1.00
C6     C     0.98904   0.42882   0.33378   0.00000  Uiso   1.00
C7     C     0.08442   0.47626   0.33465   0.00000  Uiso   1.00
C8     C     0.99006   0.57187   0.33487   0.00000  Uiso   1.00
C9     C     0.08520   0.61917   0.33832   0.00000  Uiso   1.00
C10    C     0.99054   0.71533   0.33629   0.00000  Uiso   1.00
C11    C     0.08534   0.76215   0.34165   0.00000  Uiso   1.00
C12    C     0.99021   0.85822   0.33799   0.00000  Uiso   1.00
C13    C     0.08480   0.90474   0.34331   0.00000  Uiso   1.00
C14    C     0.13148  -0.00062   0.34429   0.00000  Uiso   1.00
C15    C     0.22634   0.04637   0.34300   0.00000  Uiso   1.00
C16    C     0.13001   0.14155   0.34075   0.00000  Uiso   1.00
C17    C     0.22440   0.18824   0.33825   0.00000  Uiso   1.00
C18    C     0.13031   0.28524   0.33427   0.00000  Uiso   1.00
C19    C     0.22504   0.33255   0.33027   0.00000  Uiso   1.00
C20    C     0.13172   0.42849   0.33253   0.00000  Uiso   1.00
C21    C     0.22702   0.47579   0.32922   0.00000  Uiso   1.00
C22    C     0.13246   0.57139   0.33594   0.00000  Uiso   1.00
C23    C     0.22788   0.61909   0.33379   0.00000  Uiso   1.00
C24    C     0.13286   0.71434   0.34090   0.00000  Uiso   1.00
C25    C     0.22803   0.76176   0.33951   0.00000  Uiso   1.00
C26    C     0.13259   0.85718   0.34409   0.00000  Uiso   1.00
C27    C     0.22770   0.90449   0.34408   0.00000  Uiso   1.00
C28    C     0.27483  -0.00057   0.34269   0.00000  Uiso   1.00
C29    C     0.36977   0.04692   0.33703   0.00000  Uiso   1.00
C30    C     0.27253   0.14078   0.33875   0.00000  Uiso   1.00
C31    C     0.36707   0.18729   0.33322   0.00000  Uiso   1.00
C32    C     0.27009   0.28268   0.33247   0.00000  Uiso   1.00
C33    C     0.36434   0.32896   0.32688   0.00000  Uiso   1.00
C34    C     0.27450   0.42800   0.32608   0.00000  Uiso   1.00
C35    C     0.37063   0.47519   0.32514   0.00000  Uiso   1.00
C36    C     0.27531   0.57106   0.32994   0.00000  Uiso   1.00
C37    C     0.37110   0.61870   0.32808   0.00000  Uiso   1.00
C38    C     0.27556   0.71434   0.33485   0.00000  Uiso   1.00
C39    C     0.37077   0.76193   0.33120   0.00000  Uiso   1.00
C40    C     0.27557   0.85704   0.34070   0.00000  Uiso   1.00
C41    C     0.37063   0.90466   0.33665   0.00000  Uiso   1.00
C42    C     0.41786  -0.00017   0.33535   0.00000  Uiso   1.00
C43    C     0.51297   0.04834   0.33049   0.00000  Uiso   1.00
C44    C     0.41662   0.14183   0.33083   0.00000  Uiso   1.00
C45    C     0.51167   0.19055   0.32319   0.00000  Uiso   1.00
C46    C     0.41331   0.28155   0.32785   0.00000  Uiso   1.00
C47    C     0.50849   0.33188   0.32075   0.00000  Uiso   1.00
C48    C     0.41560   0.42459   0.32483   0.00000  Uiso   1.00
C49    C     0.41891   0.57100   0.32768   0.00000  Uiso   1.00
C50    C     0.51508   0.61941   0.33078   0.00000  Uiso   1.00
C51    C     0.41853   0.71444   0.32807   0.00000  Uiso   1.00
C52    C     0.51388   0.76269   0.32494   0.00000  Uiso   1.00
C53    C     0.41830   0.85728   0.33164   0.00000  Uiso   1.00
C54    C     0.51332   0.90548   0.32803   0.00000  Uiso   1.00
C55    C     0.56067   0.00093   0.32899   0.00000  Uiso   1.00
C56    C     0.65566   0.04885   0.32862   0.00000  Uiso   1.00
C57    C     0.55987   0.14354   0.32586   0.00000  Uiso   1.00
C58    C     0.65509   0.19186   0.32525   0.00000  Uiso   1.00
C59    C     0.55823   0.28656   0.31841   0.00000  Uiso   1.00
C60    C     0.65526   0.33540   0.31869   0.00000  Uiso   1.00
C61    C     0.65992   0.48213   0.33357   0.00000  Uiso   1.00
C62    C     0.56593   0.57504   0.34132   0.00000  Uiso   1.00
C63    C     0.66068   0.62482   0.32898   0.00000  Uiso   1.00
C64    C     0.56173   0.71508   0.32466   0.00000  Uiso   1.00
C65    C     0.65722   0.76413   0.32227   0.00000  Uiso   1.00
C66    C     0.56105   0.85808   0.32482   0.00000  Uiso   1.00
C67    C     0.65622   0.90632   0.32507   0.00000  Uiso   1.00
C68    C     0.70345   0.00138   0.32788   0.00000  Uiso   1.00
C69    C     0.79848   0.04882   0.33059   0.00000  Uiso   1.00
C70    C     0.70275   0.14419   0.32896   0.00000  Uiso   1.00
C71    C     0.79804   0.19162   0.33107   0.00000  Uiso   1.00
C72    C     0.70262   0.28765   0.32239   0.00000  Uiso   1.00
C73    C     0.79826   0.33475   0.32609   0.00000  Uiso   1.00
C74    C     0.70448   0.43160   0.32061   0.00000  Uiso   1.00
C75    C     0.79999   0.47826   0.32170   0.00000  Uiso   1.00
C76    C     0.70870   0.57729   0.32818   0.00000  Uiso   1.00
C77    C     0.80245   0.62282   0.32268   0.00000  Uiso   1.00
C78    C     0.70641   0.71822   0.32118   0.00000  Uiso   1.00
C79    C     0.80147   0.76513   0.32250   0.00000  Uiso   1.00
C80    C     0.70431   0.85918   0.32421   0.00000  Uiso   1.00
C81    C     0.79941   0.90632   0.32820   0.00000  Uiso   1.00
C82    C     0.84621   0.00106   0.33195   0.00000  Uiso   1.00
C83    C     0.94120   0.04822   0.33654   0.00000  Uiso   1.00
C84    C     0.84571   0.14402   0.33242   0.00000  Uiso   1.00
C85    C     0.94072   0.19112   0.33463   0.00000  Uiso   1.00
C86    C     0.84559   0.28679   0.33082   0.00000  Uiso   1.00
C87    C     0.94078   0.33378   0.33308   0.00000  Uiso   1.00
C88    C     0.84680   0.42996   0.32564   0.00000  Uiso   1.00
C89    C     0.94192   0.47678   0.33149   0.00000  Uiso   1.00
C90    C     0.84843   0.57345   0.32463   0.00000  Uiso   1.00
C91    C     0.94308   0.62015   0.33196   0.00000  Uiso   1.00
C92    C     0.84949   0.71782   0.32454   0.00000  Uiso   1.00
C93    C     0.94364   0.76373   0.33281   0.00000  Uiso   1.00
C94    C     0.84795   0.85948   0.32845   0.00000  Uiso   1.00
C95    C     0.94238   0.90576   0.33599   0.00000  Uiso   1.00
Ni96   Ni    0.53759   0.45435   0.32909   0.00000  Uiso   1.00
Ni97   Ni    0.59584   0.40522   0.43631   0.00000  Uiso   1.00
Ni98   Ni    0.42657   0.37967   0.44435   0.00000  Uiso   1.00
Ni99   Ni    0.55595   0.52230   0.47529   0.00000  Uiso   1.00
O100   O     0.64798   0.61812   0.52883   0.00000  Uiso   1.00
O101   O     0.35420   0.32750   0.50936   0.00000  Uiso   1.00
O102   O     0.62667   0.35826   0.52617   0.00000  Uiso   1.00
H103   H     0.31158   0.34542   0.53090   0.00000  Uiso   1.00
H104   H     0.69359   0.60578   0.55308   0.00000  Uiso   1.00
H105   H     0.61773   0.37545   0.58537   0.00000  Uiso   1.00
loop_
_geom_bond_atom_site_label_1
_geom_bond_atom_site_label_2
_geom_bond_distance
_geom_bond_site_symmetry_2
_ccdc_geom_bond_type
C0     C1      1.414   1_655 S
C0     C83     1.424   .     S
C0     C95     1.412   1_545 D
C1     C0      1.414   1_455 S
C1     C14     1.425   .     S
C1     C16     1.411   .     D
C2     C3      1.415   1_655 S
C2     C83     1.416   .     D
C2     C85     1.423   .     S
C3     C2      1.415   1_455 S
C3     C16     1.423   .     S
C3     C18     1.422   .     D
C4     C5      1.418   1_655 D
C4     C85     1.416   .     S
C4     C87     1.418   .     S
C5     C4      1.418   1_455 D
C5     C18     1.421   .     S
C5     C20     1.419   .     S
C6     C7      1.422   1_655 S
C6     C87     1.417   .     S
C6     C89     1.418   .     D
C7     C6      1.422   1_455 S
C7     C20     1.418   .     S
C7     C22     1.419   .     D
C8     C9      1.420   1_655 D
C8     C89     1.419   .     S
C8     C91     1.421   .     S
C9     C8      1.420   1_455 D
C9     C22     1.418   .     S
C9     C24     1.420   .     S
C10    C11     1.416   1_655 S
C10    C91     1.421   .     D
C10    C93     1.422   .     S
C11    C10     1.416   1_455 S
C11    C24     1.422   .     D
C11    C26     1.418   .     S
C12    C13     1.413   1_655 D
C12    C93     1.411   .     S
C12    C95     1.423   .     S
C13    C12     1.413   1_455 D
C13    C14     1.411   1_565 S
C13    C26     1.422   .     S
C14    C13     1.411   1_545 S
C14    C15     1.415   .     D
C15    C28     1.423   .     S
C15    C30     1.410   .     S
C16    C17     1.408   .     S
C17    C30     1.426   .     D
C17    C32     1.411   .     S
C18    C19     1.414   .     S
C19    C32     1.417   .     D
C19    C34     1.425   .     S
C20    C21     1.422   .     D
C21    C34     1.421   .     S
C21    C36     1.421   .     S
C22    C23     1.423   .     S
C23    C36     1.425   .     S
C23    C38     1.420   .     D
C24    C25     1.419   .     S
C25    C38     1.418   .     S
C25    C40     1.421   .     D
C26    C27     1.418   .     D
C27    C28     1.416   1_565 S
C27    C40     1.423   .     S
C28    C27     1.416   1_545 S
C28    C29     1.418   .     D
C29    C42     1.420   .     S
C29    C44     1.419   .     S
C30    C31     1.412   .     S
C31    C44     1.418   .     D
C31    C46     1.408   .     S
C32    C33     1.408   .     S
C33    C46     1.437   .     D
C33    C48     1.428   .     S
C33    Ni98    2.020   .     S
C34    C35     1.434   .     S
C35    C48     1.426   .     D
C35    C49     1.429   .     S
C36    C37     1.429   .     D
C37    C49     1.424   .     S
C37    C51     1.428   .     S
C38    C39     1.421   .     S
C39    C51     1.421   .     S
C39    C53     1.422   .     D
C40    C41     1.419   .     S
C41    C42     1.420   1_565 D
C41    C53     1.419   .     S
C42    C41     1.420   1_545 D
C42    C43     1.420   .     S
C43    C55     1.419   .     D
C43    C57     1.421   .     S
C44    C45     1.422   .     S
C45    C57     1.420   .     S
C45    C59     1.434   .     D
C46    C47     1.424   .     S
C47    C59     1.419   .     S
C47    Ni96    1.912   .     S
C47    Ni97    2.228   .     S
C48    Ni96    1.898   .     S
C48    Ni98    1.999   .     S
C49    C50     1.435   .     D
C50    C62     1.430   .     S
C50    C64     1.430   .     S
C51    C52     1.423   .     D
C52    C64     1.424   .     S
C52    C66     1.423   .     S
C53    C54     1.418   .     S
C54    C55     1.424   1_565 S
C54    C66     1.419   .     D
C55    C54     1.424   1_545 S
C55    C56     1.417   .     S
C56    C68     1.421   .     D
C56    C70     1.422   .     S
C57    C58     1.420   .     D
C58    C70     1.423   .     S
C58    C72     1.429   .     S
C59    C60     1.447   .     S
C60    C72     1.419   .     D
C60    C74     1.435   .     S
C61    C74     1.432   .     S
C61    C76     1.422   .     S
C61    Ni96    1.914   .     S
C61    Ni97    1.971   .     S
C62    C63     1.426   .     S
C62    Ni96    1.891   .     S
C62    Ni99    2.176   .     S
C63    C76     1.425   .     D
C63    C78     1.398   .     S
C64    C65     1.425   .     D
C65    C78     1.419   .     S
C65    C80     1.418   .     S
C66    C67     1.419   .     S
C67    C68     1.418   1_565 S
C67    C80     1.420   .     D
C68    C67     1.418   1_545 S
C68    C69     1.418   .     S
C69    C82     1.424   .     D
C69    C84     1.420   .     S
C70    C71     1.421   .     D
C71    C84     1.421   .     S
C71    C86     1.419   .     S
C72    C73     1.427   .     S
C73    C86     1.423   .     S
C73    C88     1.420   .     D
C74    C75     1.425   .     D
C75    C88     1.420   .     S
C75    C90     1.420   .     S
C76    C77     1.401   .     S
C77    C90     1.422   .     D
C77    C92     1.417   .     S
C78    C79     1.418   .     D
C79    C92     1.422   .     S
C79    C94     1.410   .     S
C80    C81     1.419   .     S
C81    C82     1.414   1_565 S
C81    C94     1.422   .     D
C82    C81     1.414   1_545 S
C82    C83     1.418   .     S
C84    C85     1.417   .     D
C86    C87     1.420   .     D
C88    C89     1.421   .     S
C90    C91     1.416   .     S
C92    C93     1.410   .     D
C94    C95     1.413   .     S
C95    C0      1.412   1_565 D
Ni96   Ni97    2.271   .     S
Ni96   Ni98    2.416   .     S
Ni96   Ni99    2.431   .     S
Ni97   Ni98    2.724   .     S
Ni97   Ni99    2.503   .     S
Ni97   O102    1.784   .     S
Ni98   Ni99    2.396   .     S
Ni98   O101    1.480   .     S
Ni99   O100    1.807   .     S
O100   H104    0.980   .     S
O101   H103    0.982   .     S
O102   H105    0.972   .     S
