# generated using pymatgen
data_Ni4H3(C32O)3
_symmetry_space_group_name_H-M   'P 1'
_cell_length_a   17.22000000
_cell_length_b   17.22000221
_cell_length_c   15.00000000
_cell_angle_alpha   90.00000000
_cell_angle_beta   90.00000000
_cell_angle_gamma   119.99999576
_symmetry_Int_Tables_number   1
_chemical_formula_structural   Ni4H3(C32O)3
_chemical_formula_sum   'Ni4 H3 C96 O3'
_cell_volume   3852.01756800
_cell_formula_units_Z   1
loop_
 _symmetry_equiv_pos_site_id
 _symmetry_equiv_pos_as_xyz
  1  'x, y, z'
loop_
 _atom_site_type_symbol
 _atom_site_label
 _atom_site_symmetry_multiplicity
 _atom_site_fract_x
 _atom_site_fract_y
 _atom_site_fract_z
 _atom_site_occupancy
  C  C0  1  0.98877542  0.00037725  0.33955838  1
  C  C1  1  0.08352480  0.04695434  0.34273376  1
  C  C2  1  0.98818781  0.14320325  0.33723772  1
  C  C3  1  0.08303667  0.18998119  0.33836236  1
  C  C4  1  0.98810531  0.28605153  0.33423324  1
  C  C5  1  0.08316481  0.33337949  0.33359658  1
  C  C6  1  0.98904016  0.42881811  0.33378177  1
  C  C7  1  0.08441804  0.47626068  0.33464807  1
  C  C8  1  0.99006388  0.57186501  0.33486521  1
  C  C9  1  0.08520175  0.61917062  0.33831769  1
  C  C10  1  0.99053776  0.71532815  0.33628554  1
  C  C11  1  0.08534207  0.76215478  0.34165098  1
  C  C12  1  0.99020927  0.85821805  0.33798907  1
  C  C13  1  0.08479939  0.90474420  0.34331347  1
  C  C14  1  0.13148101  -0.00062490  0.34429064  1
  C  C15  1  0.22634480  0.04636545  0.34300461  1
  C  C16  1  0.13001307  0.14155366  0.34074982  1
  C  C17  1  0.22439890  0.18823818  0.33825231  1
  C  C18  1  0.13031455  0.28524264  0.33426779  1
  C  C19  1  0.22503700  0.33255349  0.33027427  1
  C  C20  1  0.13171619  0.42849357  0.33253186  1
  C  C21  1  0.22702374  0.47578980  0.32921550  1
  C  C22  1  0.13246451  0.57139161  0.33594185  1
  C  C23  1  0.22788457  0.61909295  0.33378878  1
  C  C24  1  0.13285533  0.71433934  0.34089958  1
  C  C25  1  0.22802604  0.76175662  0.33951188  1
  C  C26  1  0.13258537  0.85718132  0.34409057  1
  C  C27  1  0.22769804  0.90449298  0.34408053  1
  C  C28  1  0.27482895  -0.00057171  0.34268989  1
  C  C29  1  0.36977316  0.04691651  0.33703352  1
  C  C30  1  0.27252902  0.14078026  0.33874916  1
  C  C31  1  0.36706923  0.18728868  0.33321668  1
  C  C32  1  0.27008835  0.28267931  0.33246904  1
  C  C33  1  0.36433846  0.32895995  0.32687817  1
  C  C34  1  0.27450128  0.42800025  0.32608125  1
  C  C35  1  0.37063162  0.47518791  0.32513883  1
  C  C36  1  0.27531065  0.57106320  0.32993829  1
  C  C37  1  0.37110306  0.61869786  0.32808112  1
  C  C38  1  0.27555699  0.71433873  0.33485431  1
  C  C39  1  0.37077203  0.76193280  0.33119715  1
  C  C40  1  0.27556717  0.85703525  0.34069789  1
  C  C41  1  0.37062745  0.90465661  0.33665321  1
  C  C42  1  0.41786296  -0.00016575  0.33535234  1
  C  C43  1  0.51296635  0.04833955  0.33048821  1
  C  C44  1  0.41662133  0.14183000  0.33083348  1
  C  C45  1  0.51167356  0.19054583  0.32319300  1
  C  C46  1  0.41331266  0.28155390  0.32784565  1
  C  C47  1  0.50848876  0.33188249  0.32074511  1
  C  C48  1  0.41560056  0.42459329  0.32482536  1
  C  C49  1  0.41890770  0.57100357  0.32767509  1
  C  C50  1  0.51508256  0.61940892  0.33078273  1
  C  C51  1  0.41853209  0.71443979  0.32806995  1
  C  C52  1  0.51387658  0.76269407  0.32494177  1
  C  C53  1  0.41829849  0.85727587  0.33164247  1
  C  C54  1  0.51332155  0.90548172  0.32803193  1
  C  C55  1  0.56066648  0.00093271  0.32899466  1
  C  C56  1  0.65565871  0.04885490  0.32861653  1
  C  C57  1  0.55987027  0.14353731  0.32585877  1
  C  C58  1  0.65508555  0.19186377  0.32524951  1
  C  C59  1  0.55823284  0.28656387  0.31840829  1
  C  C60  1  0.65526290  0.33540120  0.31868749  1
  C  C61  1  0.65991990  0.48212784  0.33356741  1
  C  C62  1  0.56592740  0.57503635  0.34131824  1
  C  C63  1  0.66068350  0.62482136  0.32898034  1
  C  C64  1  0.56173281  0.71507904  0.32466299  1
  C  C65  1  0.65722268  0.76412711  0.32227358  1
  C  C66  1  0.56104915  0.85808212  0.32481682  1
  C  C67  1  0.65621753  0.90631516  0.32506870  1
  C  C68  1  0.70344725  0.00138091  0.32787599  1
  C  C69  1  0.79848383  0.04881674  0.33059006  1
  C  C70  1  0.70275101  0.14419012  0.32895912  1
  C  C71  1  0.79803531  0.19161540  0.33106732  1
  C  C72  1  0.70261821  0.28765263  0.32239370  1
  C  C73  1  0.79825685  0.33475132  0.32608985  1
  C  C74  1  0.70448178  0.43160039  0.32061277  1
  C  C75  1  0.79999042  0.47825629  0.32170005  1
  C  C76  1  0.70870199  0.57729080  0.32818221  1
  C  C77  1  0.80244652  0.62281691  0.32267560  1
  C  C78  1  0.70640968  0.71821839  0.32118403  1
  C  C79  1  0.80147345  0.76512783  0.32249903  1
  C  C80  1  0.70430853  0.85918080  0.32421090  1
  C  C81  1  0.79940777  0.90631675  0.32820178  1
  C  C82  1  0.84621496  0.00105576  0.33195427  1
  C  C83  1  0.94119959  0.04822383  0.33653847  1
  C  C84  1  0.84571184  0.14401846  0.33242373  1
  C  C85  1  0.94071670  0.19111750  0.33462790  1
  C  C86  1  0.84559072  0.28679457  0.33081923  1
  C  C87  1  0.94077508  0.33377672  0.33308315  1
  C  C88  1  0.84680481  0.42995530  0.32564191  1
  C  C89  1  0.94191801  0.47677807  0.33149025  1
  C  C90  1  0.84842738  0.57345135  0.32462631  1
  C  C91  1  0.94307922  0.62015098  0.33195684  1
  C  C92  1  0.84949026  0.71782284  0.32454432  1
  C  C93  1  0.94364091  0.76372888  0.33281220  1
  C  C94  1  0.84794549  0.85948326  0.32845334  1
  C  C95  1  0.94238439  0.90576325  0.33599309  1
  Ni  Ni96  1  0.53759488  0.45434529  0.32909060  1
  Ni  Ni97  1  0.59584149  0.40522047  0.43631201  1
  Ni  Ni98  1  0.42656615  0.37966976  0.44434806  1
  Ni  Ni99  1  0.55594559  0.52229706  0.47529422  1
  O  O100  1  0.64798363  0.61812008  0.52883151  1
  O  O101  1  0.45499762  0.43206338  0.55520045  1
  O  O102  1  0.62666968  0.35825979  0.52617494  1
  H  H103  1  0.41237632  0.44998907  0.57674407  1
  H  H104  1  0.69359400  0.60578417  0.55307526  1
  H  H105  1  0.61772608  0.37544991  0.58536870  1
